FoamFile
{
    format      ascii;
    class       volScalarField;
    object      p;
}

dimensions      [0 2 -2 0 0 0 0];

internalField   uniform 0;

boundaryField
{
    inlet_one
    {
        type            zeroGradient;
        value           uniform 1e5;
    }

    inlet_two
    {
        type            zeroGradient;
        value           uniform 1e5;
    }

    outlet
    {
        type            fixedValue;
        value           uniform 0;
    }

    walls
    {
        type            fixedValue;
        value           uniform 0; 
    }
}
