/*--------------------------------*- C++ -*----------------------------------*\
| =========                 |                                                 |
| \\      /  F ield         | OpenFOAM: The Open Source CFD Toolbox           |
|  \\    /   O peration     | Version:  6                                     |
|   \\  /    A nd           | Web:      www.OpenFOAM.com                      |
|    \\/     M anipulation  |                                                 |
\*---------------------------------------------------------------------------*/
FoamFile
{
    version     2.0;
    format      ascii;
    class       dictionary;
    object      controlDict;
}
// * * * * * * * * * * * * * * * * * * * * * * * * * * * * * * * * * * * * * //

application     interFoam;

startFrom       startTime;

startTime       0;

stopAt          endTime;

endTime        1;

deltaT          0.0001;

writeControl    adjustableRunTime;

writeInterval   0.01;

purgeWrite      0;

writeFormat     ascii;

writePrecision  8;

writeCompression uncompressed;

timeFormat      general;

timePrecision   6;

runTimeModifiable yes;

adjustTimeStep  yes;

maxCo           1;
maxAlphaCo 	1;

maxDeltaT       1;

// ************************************************************************* //
functions
{

///////////////////////////////////////////////////////////////////////////

minmaxdomain
{
	type fieldMinMax;

	functionObjectLibs ("libfieldFunctionObjects.so");

	enabled true; //true or false

	mode component;

	writeControl timeStep;
	writeInterval 1;

	log true;

	fields (p U alpha.phase1);
}

///////////////////////////////////////////////////////////////////////////

};