FoamFile
{
    format      ascii;
    class       dictionary;
    location    "system";
    object      controlDict;
}

application     rhoPimpleFoam;

startFrom       startTime;

startTime       0;

stopAt          endTime;

endTime         0.007;

deltaT          1e-06;

writeControl    runTime;

writeInterval   0.001;

purgeWrite      0;

writeFormat     ascii;

writePrecision  6;

writeCompression off;

timeFormat      general;

timePrecision   6;

runTimeModifiable true;

functions
{
    #includeFunc mag(U)
}
