/*--------------------------------*- C++ -*----------------------------------*\
| =========                 |                                                 |
| \\      /  F ield         | OpenFOAM: The Open Source CFD Toolbox           |
|  \\    /   O peration     | Version:  6                                     |
|   \\  /    A nd           | Web:      www.OpenFOAM.com                      |
|    \\/     M anipulation  |                                                 |
\*---------------------------------------------------------------------------*/
FoamFile
{
    version     2.0;
    format      ascii;
    class       dictionary;
    object      fvSchemes;
}
// * * * * * * * * * * * * * * * * * * * * * * * * * * * * * * * * * * * * * //

ddtSchemes
{
    default         Euler;
}

gradSchemes
{
/*
    default         Gauss linear;
    grad(p)         Gauss linear;
*/

    //default 	     leastSquares;
    default 	   cellLimited leastSquares 1;
}

divSchemes
{
    default         none;
    
    //div(phi,U)      Gauss limitedLinearV 1;
    //div(phi,U)      Gauss LUST unlimitedGrad(U);
    div(phi,U)      Gauss linearUpwindV grad(U);

    //div(phi,U)      Gauss upwind;
}

laplacianSchemes
{
    default         Gauss linear limited 1;
}

interpolationSchemes
{
    default         linear;
}

snGradSchemes
{
    default         limited 1;
}

// ************************************************************************* //
