/*--------------------------------*- C++ -*----------------------------------*\
| =========                 |                                                 |
| \\      /  F ield         | OpenFOAM: The Open Source CFD Toolbox           |
|  \\    /   O peration     | Version:  6                                     |
|   \\  /    A nd           | Web:      www.OpenFOAM.com                      |
|    \\/     M anipulation  |                                                 |
\*---------------------------------------------------------------------------*/
FoamFile
{
    version     2.0;
    format      ascii;
    class       dictionary;
    object      fvSolution;
}
// * * * * * * * * * * * * * * * * * * * * * * * * * * * * * * * * * * * * * //

solvers
{
    p
    {
/*
        solver          GAMG;
        smoother        DIC;
        tolerance       1e-6;
        relTol          0.01;
*/

        solver          PCG;
        preconditioner  DIC;
        tolerance       1e-06;
        relTol          0.01;

        minIter         1;
    }
    pFinal
    {
        $p;
        relTol          0;
    }
    U
    {
        solver          PBiCGStab;
        preconditioner  DILU;
        tolerance       1e-08;
        relTol          0.001;
    }
}

PISO
{
    nCorrectors     1;
    nNonOrthogonalCorrectors 1;
}

// ************************************************************************* //
