/*--------------------------------*- C++ -*----------------------------------*\
  =========                 |
  \\      /  F ield         | OpenFOAM: The Open Source CFD Toolbox
   \\    /   O peration     | Website:  https://openfoam.org
    \\  /    A nd           | Version:  9
     \\/     M anipulation  |
\*---------------------------------------------------------------------------*/
FoamFile
{
    format      ascii;
    class       polyBoundaryMesh;
    location    "constant/polyMesh";
    object      boundary;
}
// * * * * * * * * * * * * * * * * * * * * * * * * * * * * * * * * * * * * * //

8
(
    leftWall
    {
        type            wall;
        inGroups        List<word> 1(wall);
        nFaces          591;
        startFace       90329;
    }
    rightWall
    {
        type            wall;
        inGroups        List<word> 1(wall);
        nFaces          647;
        startFace       90920;
    }
    frontWall
    {
        type            wall;
        inGroups        List<word> 1(wall);
        nFaces          1414;
        startFace       91567;
    }
    backWall
    {
        type            wall;
        inGroups        List<word> 1(wall);
        nFaces          0;
        startFace       92981;
    }
    bottomWall
    {
        type            wall;
        inGroups        List<word> 1(wall);
        nFaces          1165;
        startFace       92981;
    }
    top
    {
        type            patch;
        nFaces          0;
        startFace       94146;
    }
    procBoundary1to0
    {
        type            processor;
        inGroups        List<word> 1(processor);
        nFaces          1439;
        startFace       94146;
        matchTolerance  0.0001;
        myProcNo        1;
        neighbProcNo    0;
    }
    procBoundary1to3
    {
        type            processor;
        inGroups        List<word> 1(processor);
        nFaces          1196;
        startFace       95585;
        matchTolerance  0.0001;
        myProcNo        1;
        neighbProcNo    3;
    }
)

// ************************************************************************* //
