/*--------------------------------*- C++ -*----------------------------------*\
  =========                 |
  \\      /  F ield         | OpenFOAM: The Open Source CFD Toolbox
   \\    /   O peration     | Website:  https://openfoam.org
    \\  /    A nd           | Version:  9
     \\/     M anipulation  |
\*---------------------------------------------------------------------------*/
FoamFile
{
    format      ascii;
    class       polyBoundaryMesh;
    location    "constant/polyMesh";
    object      boundary;
}
// * * * * * * * * * * * * * * * * * * * * * * * * * * * * * * * * * * * * * //

9
(
    leftWall
    {
        type            wall;
        inGroups        List<word> 1(wall);
        nFaces          642;
        startFace       91470;
    }
    rightWall
    {
        type            wall;
        inGroups        List<word> 1(wall);
        nFaces          619;
        startFace       92112;
    }
    frontWall
    {
        type            wall;
        inGroups        List<word> 1(wall);
        nFaces          0;
        startFace       92731;
    }
    backWall
    {
        type            wall;
        inGroups        List<word> 1(wall);
        nFaces          1276;
        startFace       92731;
    }
    bottomWall
    {
        type            wall;
        inGroups        List<word> 1(wall);
        nFaces          0;
        startFace       94007;
    }
    top
    {
        type            patch;
        nFaces          1250;
        startFace       94007;
    }
    procBoundary0to1
    {
        type            processor;
        inGroups        List<word> 1(processor);
        nFaces          1264;
        startFace       95257;
        matchTolerance  0.0001;
        myProcNo        0;
        neighbProcNo    1;
    }
    procBoundary0to2
    {
        type            processor;
        inGroups        List<word> 1(processor);
        nFaces          658;
        startFace       96521;
        matchTolerance  0.0001;
        myProcNo        0;
        neighbProcNo    2;
    }
    procBoundary0to3
    {
        type            processor;
        inGroups        List<word> 1(processor);
        nFaces          675;
        startFace       97179;
        matchTolerance  0.0001;
        myProcNo        0;
        neighbProcNo    3;
    }
)

// ************************************************************************* //
