/*--------------------------------*- C++ -*----------------------------------*\
  =========                 |
  \\      /  F ield         | OpenFOAM: The Open Source CFD Toolbox
   \\    /   O peration     | Website:  https://openfoam.org
    \\  /    A nd           | Version:  9
     \\/     M anipulation  |
\*---------------------------------------------------------------------------*/
FoamFile
{
    format      ascii;
    class       polyBoundaryMesh;
    location    "constant/polyMesh";
    object      boundary;
}
// * * * * * * * * * * * * * * * * * * * * * * * * * * * * * * * * * * * * * //

9
(
    leftWall
    {
        type            wall;
        inGroups        List<word> 1(wall);
        nFaces          600;
        startFace       89677;
    }
    rightWall
    {
        type            wall;
        inGroups        List<word> 1(wall);
        nFaces          639;
        startFace       90277;
    }
    frontWall
    {
        type            wall;
        inGroups        List<word> 1(wall);
        nFaces          0;
        startFace       90916;
    }
    backWall
    {
        type            wall;
        inGroups        List<word> 1(wall);
        nFaces          1224;
        startFace       90916;
    }
    bottomWall
    {
        type            wall;
        inGroups        List<word> 1(wall);
        nFaces          1275;
        startFace       92140;
    }
    top
    {
        type            patch;
        nFaces          0;
        startFace       93415;
    }
    procBoundary1to0
    {
        type            processor;
        inGroups        List<word> 1(processor);
        nFaces          1264;
        startFace       93415;
        matchTolerance  0.0001;
        myProcNo        1;
        neighbProcNo    0;
    }
    procBoundary1to2
    {
        type            processor;
        inGroups        List<word> 1(processor);
        nFaces          673;
        startFace       94679;
        matchTolerance  0.0001;
        myProcNo        1;
        neighbProcNo    2;
    }
    procBoundary1to3
    {
        type            processor;
        inGroups        List<word> 1(processor);
        nFaces          647;
        startFace       95352;
        matchTolerance  0.0001;
        myProcNo        1;
        neighbProcNo    3;
    }
)

// ************************************************************************* //
