/*--------------------------------*- C++ -*----------------------------------*\
| =========                 |                                                 |
| \\      /  F ield         | OpenFOAM: The Open Source CFD Toolbox           |
|  \\    /   O peration     | Version:  6                                     |
|   \\  /    A nd           | Web:      www.OpenFOAM.com                      |
|    \\/     M anipulation  |                                                 |
\*---------------------------------------------------------------------------*/
FoamFile
{
    version     2.0;
    format      ascii;
    class       dictionary;
    object      transportProperties;
}
// * * * * * * * * * * * * * * * * * * * * * * * * * * * * * * * * * * * * * //

//DT            DT [ 0 2 -1 0 0 0 0 ] 0.01;
DT              DT [ 0 2 -1 0 0 0 0 ] 0.1;

//Dummy value to compute Peclet number
nu              nu [ 0 0 0 0 0 0 0 ] 0.1;

// ************************************************************************* //
