/*--------------------------------*- C++ -*----------------------------------*\
| =========                 |                                                 |
| \\      /  F ield         | OpenFOAM: The Open Source CFD Toolbox           |
|  \\    /   O peration     | Version:  6                                     |
|   \\  /    A nd           | Web:      www.OpenFOAM.com                      |
|    \\/     M anipulation  |                                                 |
\*---------------------------------------------------------------------------*/
FoamFile
{
    version     2.0;
    format      ascii;
    class       dictionary;
    object      blockMeshDict;
}
// * * * * * * * * * * * * * * * * * * * * * * * * * * * * * * * * * * * * * //

convertToMeters 1;

xmin  0;
xmax  20;
ymin -2;
ymax  2;
zmin  0;
zmax  1;

deltax 0.1;	//0.05
deltay 0.1;	//0.05
deltaz 0.05;	//0.05

lx #calc "$xmax - $xmin";
ly #calc "$ymax - $ymin";
lz #calc "$zmax - $zmin";

xcells #calc "round($lx/$deltax)";
ycells #calc "round($ly/$deltay)";

//zcells #calc "round($lz/$deltaz)";
zcells 1;

vertices        
(
    ($xmin  $ymin  $zmin)	//0
    ($xmax  $ymin  $zmin)	//1
    ($xmax  $ymax  $zmin)	//2
    ($xmin  $ymax  $zmin)	//3
    ($xmin  $ymin  $zmax)	//4
    ($xmax  $ymin  $zmax)	//5
    ($xmax  $ymax  $zmax)	//6
    ($xmin  $ymax  $zmax)	//7
);

blocks          
(
    //hex (0 1 2 3 4 5 6 7) (400 40 1) simpleGrading (1 1 1)
    hex (0 1 2 3 4 5 6 7) ($xcells $ycells $zcells) simpleGrading (1 1 1)
);

edges           
(
);

boundary
(
    left
    {
        type patch;
        faces
        (
            (0 4 7 3)
        );
    }
    right
    {
        type patch;
        faces
        (
            (2 6 5 1)
        );
    }
    top
    {
        type wall;
        faces
        (
            (3 7 6 2)
        );
    }
    bottom
    {
        type wall;
        faces
        (
            (1 5 4 0)
        );
    }
    frontAndBack 
    {
        type empty;
        faces
        (
            (0 3 2 1)
            (4 5 6 7)
        );
    }
);

mergePatchPairs 
(
);

// ************************************************************************* //
