/*--------------------------------*- C++ -*----------------------------------*\
| =========                 |                                                 |
| \\      /  F ield         | OpenFOAM: The Open Source CFD Toolbox           |
|  \\    /   O peration     | Version:  6                                     |
|   \\  /    A nd           | Web:      www.OpenFOAM.com                      |
|    \\/     M anipulation  |                                                 |
\*---------------------------------------------------------------------------*/
FoamFile
{
    version     2.0;
    format      ascii;
    class       dictionary;
    object      controlDict;
}
// * * * * * * * * * * * * * * * * * * * * * * * * * * * * * * * * * * * * * //

application     icoFoam;

startFrom       latestTime;

startTime       0;

stopAt          endTime;
//stopAt          writeNow;

endTime         50;

deltaT          0.05;

writeControl    timeStep;

writeInterval   20;

purgeWrite      0;

writeFormat     ascii;

writePrecision  8;

writeCompression off;

timeFormat      general;

timePrecision   6;

runTimeModifiable true;

// ************************************************************************* //

functions
{

///////////////////////////////////////////////////////////////////////////

minmaxdomain
{
	type fieldMinMax;

	functionObjectLibs ("libfieldFunctionObjects.so");

	enabled true;

	mode component;

	writeControl timeStep;

	writeInterval 1;

	log true;

	fields (p U);
}

///////////////////////////////////////////////////////////////////////////

};
