/*--------------------------------*- C++ -*----------------------------------*\
  =========                 |
  \\      /  F ield         | OpenFOAM: The Open Source CFD Toolbox
   \\    /   O peration     | Website:  https://openfoam.org
    \\  /    A nd           | Version:  9
     \\/     M anipulation  |
\*---------------------------------------------------------------------------*/
FoamFile
{
    format      ascii;
    class       polyBoundaryMesh;
    location    "constant/polyMesh";
    object      boundary;
}
// * * * * * * * * * * * * * * * * * * * * * * * * * * * * * * * * * * * * * //

5
(
    inlet
    {
        type            patch;
        nFaces          1;
        startFace       9;
    }
    outlet
    {
        type            patch;
        nFaces          1;
        startFace       10;
    }
    bottom
    {
        type            patch;
        nFaces          10;
        startFace       11;
    }
    top
    {
        type            patch;
        nFaces          10;
        startFace       21;
    }
    frontAndBack
    {
        type            empty;
        inGroups        List<word> 1(empty);
        nFaces          20;
        startFace       31;
    }
)

// ************************************************************************* //
