/*--------------------------------*- C++ -*----------------------------------*\
| =========                 |                                                 |
| \\      /  F ield         | OpenFOAM: The Open Source CFD Toolbox           |
|  \\    /   O peration     | Version:  6                                     |
|   \\  /    A nd           | Web:      www.OpenFOAM.com                      |
|    \\/     M anipulation  |                                                 |
\*---------------------------------------------------------------------------*/
FoamFile
{
    version     2.0;
    format      ascii;
    class       volScalarField;
    object      p;
}
// * * * * * * * * * * * * * * * * * * * * * * * * * * * * * * * * * * * * * //

dimensions      [0 2 -2 0 0 0 0];

internalField   uniform 0;

boundaryField
{
    auto0
    {
        type            zeroGradient;
    }
    auto1
    {
        type            fixedValue;
        value           uniform 0;
    }
    auto2
    {
        type            zeroGradient;
    }
    auto3
    {
        type            zeroGradient;
    }
    auto4
    {
        type            zeroGradient;
    }
    auto5
    {
        type            zeroGradient;
    }
    auto6
    {
        type            zeroGradient;
    }
    auto7
    {
        type            zeroGradient;
    }
    auto8
    {
        type            zeroGradient;
    }
    auto9
    {
        type            zeroGradient;
    }
}

// ************************************************************************* //
