/*--------------------------------*- C++ -*----------------------------------*\
  =========                 |
  \\      /  F ield         | OpenFOAM: The Open Source CFD Toolbox
   \\    /   O peration     | Website:  https://openfoam.org
    \\  /    A nd           | Version:  9
     \\/     M anipulation  |
\*---------------------------------------------------------------------------*/
FoamFile
{
    format      ascii;
    class       polyBoundaryMesh;
    location    "constant/polyMesh";
    object      boundary;
}
// * * * * * * * * * * * * * * * * * * * * * * * * * * * * * * * * * * * * * //

9
(
    leftWall
    {
        type            wall;
        inGroups        List<word> 1(wall);
        nFaces          1258;
        startFace       91192;
    }
    rightWall
    {
        type            wall;
        inGroups        List<word> 1(wall);
        nFaces          0;
        startFace       92450;
    }
    frontWall
    {
        type            wall;
        inGroups        List<word> 1(wall);
        nFaces          1250;
        startFace       92450;
    }
    backWall
    {
        type            wall;
        inGroups        List<word> 1(wall);
        nFaces          0;
        startFace       93700;
    }
    bottomWall
    {
        type            wall;
        inGroups        List<word> 1(wall);
        nFaces          625;
        startFace       93700;
    }
    top
    {
        type            patch;
        nFaces          625;
        startFace       94325;
    }
    procBoundary3to0
    {
        type            processor;
        inGroups        List<word> 1(processor);
        nFaces          675;
        startFace       94950;
        matchTolerance  0.0001;
        myProcNo        3;
        neighbProcNo    0;
    }
    procBoundary3to1
    {
        type            processor;
        inGroups        List<word> 1(processor);
        nFaces          647;
        startFace       95625;
        matchTolerance  0.0001;
        myProcNo        3;
        neighbProcNo    1;
    }
    procBoundary3to2
    {
        type            processor;
        inGroups        List<word> 1(processor);
        nFaces          1236;
        startFace       96272;
        matchTolerance  0.0001;
        myProcNo        3;
        neighbProcNo    2;
    }
)

// ************************************************************************* //
