/*--------------------------------*- C++ -*----------------------------------*\
| =========                 |                                                 |
| \\      /  F ield         | OpenFOAM: The Open Source CFD Toolbox           |
|  \\    /   O peration     | Version:  1.6                                   |
|   \\  /    A nd           | Web:      www.OpenFOAM.org                      |
|    \\/     M anipulation  |                                                 |
\*---------------------------------------------------------------------------*/
FoamFile
{
    version     2.0;
    format      ascii;
    class       dictionary;
    location    "system";
    object      fvSchemes;
}
// * * * * * * * * * * * * * * * * * * * * * * * * * * * * * * * * * * * * * //

ddtSchemes
{
  //default         Euler;
  //  default CrankNicolson 0.9;
  default backward;
}

gradSchemes
{
    default         Gauss linear;
}

divSchemes
{
    default         none;
    //div(phi,T)      Gauss limitedLinear 1.0;
    div(phi,T)      Gauss linear;
    //div(phi,T)      Gauss linearUpwind grad(T);
    //div(phi,T)      Gauss upwind;

}

laplacianSchemes
{
    default         none;
    laplacian(DT,T) Gauss linear corrected;
}

interpolationSchemes
{
    default         linear;
}

snGradSchemes
{
    default         corrected;
}

fluxRequired
{
    default         no;
    T               ;
}


// ************************************************************************* //
