/*--------------------------------*- C++ -*----------------------------------*\
  =========                 |
  \\      /  F ield         | OpenFOAM: The Open Source CFD Toolbox
   \\    /   O peration     | Website:  https://openfoam.org
    \\  /    A nd           | Version:  9
     \\/     M anipulation  |
\*---------------------------------------------------------------------------*/
FoamFile
{
    format      ascii;
    class       polyBoundaryMesh;
    location    "constant/polyMesh";
    object      boundary;
}
// * * * * * * * * * * * * * * * * * * * * * * * * * * * * * * * * * * * * * //

8
(
    leftWall
    {
        type            wall;
        inGroups        List<word> 1(wall);
        nFaces          621;
        startFace       89979;
    }
    rightWall
    {
        type            wall;
        inGroups        List<word> 1(wall);
        nFaces          621;
        startFace       90600;
    }
    frontWall
    {
        type            wall;
        inGroups        List<word> 1(wall);
        nFaces          0;
        startFace       91221;
    }
    backWall
    {
        type            wall;
        inGroups        List<word> 1(wall);
        nFaces          1350;
        startFace       91221;
    }
    bottomWall
    {
        type            wall;
        inGroups        List<word> 1(wall);
        nFaces          0;
        startFace       92571;
    }
    top
    {
        type            patch;
        nFaces          1150;
        startFace       92571;
    }
    procBoundary2to0
    {
        type            processor;
        inGroups        List<word> 1(processor);
        nFaces          1350;
        startFace       93721;
        matchTolerance  0.0001;
        myProcNo        2;
        neighbProcNo    0;
    }
    procBoundary2to3
    {
        type            processor;
        inGroups        List<word> 1(processor);
        nFaces          1250;
        startFace       95071;
        matchTolerance  0.0001;
        myProcNo        2;
        neighbProcNo    3;
    }
)

// ************************************************************************* //
