/*--------------------------------*- C++ -*----------------------------------*\
  =========                 |
  \\      /  F ield         | OpenFOAM: The Open Source CFD Toolbox
   \\    /   O peration     | Website:  https://openfoam.org
    \\  /    A nd           | Version:  9
     \\/     M anipulation  |
\*---------------------------------------------------------------------------*/
FoamFile
{
    format      ascii;
    class       polyBoundaryMesh;
    location    "constant/polyMesh";
    object      boundary;
}
// * * * * * * * * * * * * * * * * * * * * * * * * * * * * * * * * * * * * * //

4
(
    inlet_one
    {
        type            patch;
        nFaces          100;
        startFace       27900;
    }
    inlet_two
    {
        type            patch;
        nFaces          100;
        startFace       28000;
    }
    outlet
    {
        type            patch;
        nFaces          100;
        startFace       28100;
    }
    walls
    {
        type            wall;
        inGroups        List<word> 1(wall);
        nFaces          3900;
        startFace       28200;
    }
)

// ************************************************************************* //
