/*--------------------------------*- C++ -*----------------------------------*\
| =========                 |                                                 |
| \\      /  F ield         | OpenFOAM: The Open Source CFD Toolbox           |
|  \\    /   O peration     | Version:  6                                     |
|   \\  /    A nd           | Web:      www.OpenFOAM.com                      |
|    \\/     M anipulation  |                                                 |
\*---------------------------------------------------------------------------*/
FoamFile
{
    version     2.0;
    format      ascii;
    class       dictionary;
    object      fvSchemes;
}
// * * * * * * * * * * * * * * * * * * * * * * * * * * * * * * * * * * * * * //

ddtSchemes
{
    default         Euler;
    //ddt(T)          backward;
}

gradSchemes
{
    default         Gauss linear;
    //default         cellLimited Gauss linear 1;
    //grad(T)         cellLimited Gauss linear 1;
}

divSchemes
{
    default         none;

    div(phi,T)      Gauss linear;
    //div(phi,T)      Gauss upwind;
    //div(phi,T)      Gauss limitedLinear 1;
    //div(phi,T)      Gauss vanLeer;
    //div(phi,T)      Gauss SuperBee;

    //div(grad(T))      Gauss linear;
}

laplacianSchemes
{
    default         Gauss linear corrected
    //laplacian(DT,T) Gauss linear corrected;
}

interpolationSchemes
{
    default         linear;
}

snGradSchemes
{
    default         corrected;
}

// ************************************************************************* //
