/*--------------------------------*- C++ -*----------------------------------*\
| =========                 |                                                 |
| \\      /  F ield         | OpenFOAM: The Open Source CFD Toolbox           |
|  \\    /   O peration     | Version:  6                                     |
|   \\  /    A nd           | Web:      www.OpenFOAM.com                      |
|    \\/     M anipulation  |                                                 |
\*---------------------------------------------------------------------------*/
FoamFile
{
    version     2.0;
    format      ascii;
    class       volVectorField;
    object      U;
}
// * * * * * * * * * * * * * * * * * * * * * * * * * * * * * * * * * * * * * //

dimensions      [0 1 -1 0 0 0 0];

internalField   uniform (0 0 0);

boundaryField
{
    auto0
    {
        type            fixedValue;
        value           uniform (0 0 0);
    }
    auto1
    {
        type            zeroGradient;
    }
    auto2
    {
        type            fixedValue;
        value           uniform (0 1 0);
    }
    auto3
    {
        type            fixedValue;
        value           #codeStream
        {
            codeInclude
            #{
                #include "fvCFD.H"
            #};

            codeOptions
            #{
                -I$(LIB_SRC)/finiteVolume/lnInclude \
                -I$(LIB_SRC)/meshTools/lnInclude
            #};

    	    //libs needed to visualize BC in paraview
    	    codeLibs
    	    #{
        	-lmeshTools \
        	-lfiniteVolume
    	    #};

            code
            #{
                const IOdictionary& d = static_cast<const IOdictionary&>
				(
                    dict.parent().parent()
                );
                const fvMesh& mesh = refCast<const fvMesh>(d.db());
                const label id = mesh.boundary().findPatchID("auto3");
                const fvPatch& patch = mesh.boundary()[id];

                vectorField U(patch.size(), vector(0, 0, 0));

                const scalar pi = constant::mathematical::pi;
                const scalar s  = 0.5;	

                forAll(U, i)
                {
                    const scalar x = patch.Cf()[i][0];
                    const scalar y = patch.Cf()[i][1];
                    const scalar z = patch.Cf()[i][2];

		            U[i] = vector(-1*(pow(z/s, 2) + pow((y-s)/s,2) - 1.0), 0, 0);
                }

                writeEntry(os, "", U);
            #};
        };
    }
}

// ************************************************************************* //
