/*--------------------------------*- C++ -*----------------------------------*\
| =========                 |                                                 |
| \\      /  F ield         | OpenFOAM: The Open Source CFD Toolbox           |
|  \\    /   O peration     | Version:  1.6                                   |
|   \\  /    A nd           | Web:      http://www.OpenFOAM.org               |
|    \\/     M anipulation  |                                                 |
\*---------------------------------------------------------------------------*/
FoamFile
{
    version     2.0;
    format      ascii;
    class       dictionary;
    object      blockMeshDict;
}
// * * * * * * * * * * * * * * * * * * * * * * * * * * * * * * * * * * * * * //

convertToMeters 10.0;

vertices        
(
 (0 0 0)
 (10 0 0)
 (10 0.1 0)
 (0 0.1 0)
 (0 0 0.1)
 (10 0 0.1)
 (10 0.1 0.1)
 (0 0.1 0.1)
);

blocks          
(
    hex (0 1 2 3 4 5 6 7) (100 1 1) simpleGrading (1 1 1)
);

edges           
(
);

patches         
(
    patch inlet 
    (
        (0 4 7 3)
    )
    patch outlet 
    (
        (1 2 6 5)
    )
    empty frontAndBack1 
    (
        (4 5 6 7)
        (0 3 2 1)
    )
    empty frontAndBack2
    (
        (3 7 6 2)
        (0 1 5 4)
    )
);

mergePatchPairs
(
);

// ************************************************************************* //
